6
Coordinates from ORCA-job methanol E -115.716514469978
  C           0.01088055525883     -0.00000010491268     -0.08749623470153
  O           0.07640656233750      0.00000018394827      1.32885924676147
  H           1.00034063460563      0.00000016800563     -0.54552250232185
  H          -0.52569756441660     -0.88619067042405     -0.42760458533760
  H          -0.52569718857995      0.88619040140898     -0.42760429920939
  H           0.99048700079458      0.00000002197386      1.60936837480890
